data_crystal
 
_cell_length_a    36.19220
_cell_length_b    36.19220
_cell_length_c    3.43990
_cell_angle_alpha 90.00000
_cell_angle_beta  90.00000
_cell_angle_gamma 120.00000
 
_symmetry_space_group_name_Hall 'P 1'
_symmetry_space_group_name_H-M  'P 1'
 
loop_
_symmetry_equiv_pos_as_xyz
 'x,y,z' 
 
loop_
_atom_site_label
_atom_site_type_symbol
_atom_site_fract_x
_atom_site_fract_y
_atom_site_fract_z
H          H       0.33417   0.75454   0.97746 
N          N       0.43227   0.88732   0.59212 
C          C       0.43359   0.94979   0.96139 
C          C       0.51649   0.98466   0.22836 
C          C       0.48236   0.95787   0.45190 
C          C       0.46397   0.91348   0.39874 
C          C       0.46656   0.97443   0.73169 
C          C       0.41389   0.84241   0.53821 
C          C       0.38022   0.81806   0.79269 
C          C       0.36236   0.77525   0.76260 
C          C       0.41110   0.78267   0.25918 
C          C       0.42968   0.82438   0.27748 
C          C       0.37676   0.75696   0.49421 
N          N       0.31141   0.68544   0.47705 
H          H       0.36914   0.83441   1.01101 
C          C       0.41745   0.91180   0.91087 
H          H       0.47885   0.90167   0.17161 
H          H       0.53018   0.97114   0.00594 
H          H       0.42730   0.76853   0.05498 
H          H       0.45383   0.84575   0.07689 
H          H       0.54273   0.57791   1.18993 
H          H       0.46386   0.56527   0.72932 
H          H       0.50419   0.61506   1.04472 
